<?xml version="1.0" encoding="UTF-8"?>

<!-- generated on 08/13/20 13:40:43 by Eclipse SUMO netedit Version 1.4.0
<configuration xmlns:xsi="http://www.w3.org/2001/XMLSchema-instance" xsi:noNamespaceSchemaLocation="http://sumo.dlr.de/xsd/netconvertConfiguration.xsd">

    <input>
        <sumo-net-file value="D:\Sumo\Dissertation\DC\Base%20Case\Demand%208.5\DC.net.xml"/>
    </input>

    <output>
        <output-file value="D:\Sumo\Dissertation\DC\Base%20Case\Demand%208.5\DC.net.xml"/>
    </output>

    <processing>
        <geometry.min-radius.fix.railways value="false"/>
        <geometry.max-grade.fix value="false"/>
        <offset.disable-normalization value="true"/>
        <lefthand value="false"/>
    </processing>

    <junctions>
        <no-turnarounds value="true"/>
        <junctions.corner-detail value="5"/>
        <junctions.limit-turn-speed value="5.5"/>
        <rectangular-lane-cut value="false"/>
    </junctions>

    <pedestrian>
        <walkingareas value="false"/>
    </pedestrian>

    <netedit>
        <additional-files value="D:\Sumo\Dissertation\DC\Base%20Case\Demand%208.5\BusStops_DeliveryLocations.add.xml"/>
    </netedit>

    <report>
        <aggregate-warnings value="5"/>
    </report>

</configuration>
-->

<net version="1.3" junctionCornerDetail="5" limitTurnSpeed="5.50" xmlns:xsi="http://www.w3.org/2001/XMLSchema-instance" xsi:noNamespaceSchemaLocation="http://sumo.dlr.de/xsd/net_file.xsd">

    <location netOffset="-318197.75,-4307020.57" convBoundary="0.00,0.00,7813.25,13530.24" origBoundary="-77.099881,38.894765,-77.006404,39.015108" projParameter="+proj=utm +zone=18 +ellps=WGS84 +datum=WGS84 +units=m +no_defs"/>

    <type id="highway.bridleway" priority="1" numLanes="1" speed="2.78" allow="pedestrian" oneway="1" width="2.00"/>
    <type id="highway.bus_guideway" priority="1" numLanes="1" speed="27.78" allow="bus" oneway="1"/>
    <type id="highway.cycleway" priority="1" numLanes="1" speed="8.33" allow="bicycle" oneway="0" width="1.00"/>
    <type id="highway.footway" priority="1" numLanes="1" speed="2.78" allow="pedestrian" oneway="1" width="2.00"/>
    <type id="highway.ford" priority="1" numLanes="1" speed="2.78" allow="army" oneway="0"/>
    <type id="highway.living_street" priority="2" numLanes="1" speed="2.78" disallow="tram rail_urban rail rail_electric rail_fast ship" oneway="0"/>
    <type id="highway.motorway" priority="14" numLanes="2" speed="39.44" allow="private emergency authority army vip passenger hov taxi bus coach delivery truck trailer motorcycle evehicle custom1 custom2" oneway="1"/>
    <type id="highway.motorway_link" priority="9" numLanes="1" speed="22.22" allow="private emergency authority army vip passenger hov taxi bus coach delivery truck trailer motorcycle evehicle custom1 custom2" oneway="1"/>
    <type id="highway.path" priority="1" numLanes="1" speed="2.78" allow="pedestrian bicycle" oneway="1" width="2.00"/>
    <type id="highway.pedestrian" priority="1" numLanes="1" speed="2.78" allow="pedestrian" oneway="1" width="2.00"/>
    <type id="highway.primary" priority="12" numLanes="2" speed="27.78" disallow="tram rail_urban rail rail_electric rail_fast ship" oneway="0"/>
    <type id="highway.primary_link" priority="7" numLanes="1" speed="22.22" disallow="tram rail_urban rail rail_electric rail_fast ship" oneway="0"/>
    <type id="highway.raceway" priority="15" numLanes="2" speed="83.33" allow="vip" oneway="0"/>
    <type id="highway.residential" priority="3" numLanes="1" speed="13.89" disallow="tram rail_urban rail rail_electric rail_fast ship" oneway="0"/>
    <type id="highway.secondary" priority="11" numLanes="1" speed="27.78" disallow="tram rail_urban rail rail_electric rail_fast ship" oneway="0"/>
    <type id="highway.secondary_link" priority="6" numLanes="1" speed="22.22" disallow="tram rail_urban rail rail_electric rail_fast ship" oneway="0"/>
    <type id="highway.service" priority="1" numLanes="1" speed="5.56" allow="pedestrian delivery bicycle" oneway="0"/>
    <type id="highway.stairs" priority="1" numLanes="1" speed="1.39" allow="pedestrian" oneway="1" width="2.00"/>
    <type id="highway.step" priority="1" numLanes="1" speed="1.39" allow="pedestrian" oneway="1" width="2.00"/>
    <type id="highway.steps" priority="1" numLanes="1" speed="1.39" allow="pedestrian" oneway="1" width="2.00"/>
    <type id="highway.tertiary" priority="10" numLanes="1" speed="22.22" disallow="tram rail_urban rail rail_electric rail_fast ship" oneway="0"/>
    <type id="highway.tertiary_link" priority="5" numLanes="1" speed="22.22" disallow="tram rail_urban rail rail_electric rail_fast ship" oneway="0"/>
    <type id="highway.track" priority="1" numLanes="1" speed="5.56" disallow="tram rail_urban rail rail_electric rail_fast ship" oneway="0"/>
    <type id="highway.trunk" priority="13" numLanes="2" speed="27.78" disallow="pedestrian bicycle tram rail_urban rail rail_electric rail_fast ship" oneway="0"/>
    <type id="highway.trunk_link" priority="8" numLanes="1" speed="22.22" disallow="pedestrian bicycle tram rail_urban rail rail_electric rail_fast ship" oneway="0"/>
    <type id="highway.unclassified" priority="4" numLanes="1" speed="13.89" disallow="tram rail_urban rail rail_electric rail_fast ship" oneway="0"/>
    <type id="highway.unsurfaced" priority="1" numLanes="1" speed="8.33" disallow="tram rail_urban rail rail_electric rail_fast ship" oneway="0"/>
    <type id="railway.highspeed" priority="21" numLanes="1" speed="69.44" allow="rail_fast" oneway="1"/>
    <type id="railway.light_rail" priority="19" numLanes="1" speed="27.78" allow="rail_urban" oneway="1"/>
    <type id="railway.preserved" priority="16" numLanes="1" speed="27.78" allow="rail" oneway="1"/>
    <type id="railway.rail" priority="20" numLanes="1" speed="44.44" allow="rail" oneway="1"/>
    <type id="railway.subway" priority="18" numLanes="1" speed="27.78" allow="rail_urban" oneway="1"/>
    <type id="railway.tram" priority="17" numLanes="1" speed="13.89" allow="tram" oneway="1"/>

    <edge id=":1060555264_0" function="internal">
        <lane id=":1060555264_0_0" index="0" disallow="tram rail_urban rail rail_electric rail_fast ship" speed="13.89" length="0.10" shape="2150.99,7328.35 2150.99,7328.35"/>
    </edge>
    <edge id=":1060555264_1" function="internal">
        <lane id=":1060555264_1_0" index="0" disallow="tram rail_urban rail rail_electric rail_fast ship" speed="13.89" length="0.10" shape="2150.93,7325.15 2150.93,7325.15"/>
    </edge>
    <edge id=":1060555272_0" function="internal">
        <lane id=":1060555272_0_0" index="0" disallow="tram rail_urban rail rail_electric rail_fast ship" speed="13.89" length="0.10" shape="2151.67,7398.28 2151.67,7398.28"/>
    </edge>
    <edge id=":1060555272_1" function="internal">
        <lane id=":1060555272_1_0" index="0" disallow="tram rail_urban rail rail_electric rail_fast ship" speed="13.89" length="0.10" shape="2151.59,7395.08 2151.59,7395.08"/>
    </edge>
    <edge id=":1061962672_0" function="internal">
        <lane id=":1061962672_0_0" index="0" disallow="tram rail_urban rail rail_electric rail_fast ship" speed="13.89" length="9.22" shape="1409.53,7559.06 1409.22,7549.85"/>
    </edge>
    <edge id=":1061962672_1" function="internal">
        <lane id=":1061962672_1_0" index="0" allow="pedestrian delivery bicycle" speed="6.88" length="5.03" shape="1409.53,7559.06 1409.88,7556.33 1411.01,7554.35"/>
    </edge>
    <edge id=":1061962672_2" function="internal">
        <lane id=":1061962672_2_0" index="0" disallow="tram rail_urban rail rail_electric rail_fast ship" speed="3.65" length="2.34" shape="1409.53,7559.06 1410.31,7557.85 1411.11,7557.44"/>
    </edge>
    <edge id=":1061962672_9" function="internal">
        <lane id=":1061962672_9_0" index="0" allow="pedestrian delivery bicycle" speed="6.88" length="5.04" shape="1411.01,7554.35 1412.93,7553.12 1415.64,7552.64"/>
    </edge>
    <edge id=":1061962672_10" function="internal">
        <lane id=":1061962672_10_0" index="0" disallow="tram rail_urban rail rail_electric rail_fast ship" speed="3.65" length="2.34" shape="1411.11,7557.44 1411.91,7557.83 1412.73,7559.01"/>
    </edge>
    <edge id=":1061962672_3" function="internal">
        <lane id=":1061962672_3_0" index="0" disallow="tram rail_urban rail rail_electric rail_fast ship" speed="5.06" length="4.98" shape="1415.76,7555.84 1414.41,7556.08 1413.46,7556.68 1412.90,7557.66 1412.73,7559.01"/>
    </edge>
    <edge id=":1061962672_4" function="internal">
        <lane id=":1061962672_4_0" index="0" disallow="tram rail_urban rail rail_electric rail_fast ship" speed="6.88" length="10.07" shape="1415.76,7555.84 1413.02,7555.54 1411.02,7554.45 1409.75,7552.55 1409.22,7549.85"/>
    </edge>
    <edge id=":1061962672_5" function="internal">
        <lane id=":1061962672_5_0" index="0" allow="pedestrian delivery bicycle" speed="3.65" length="4.67" shape="1415.76,7555.84 1414.53,7555.08 1414.10,7554.29 1414.47,7553.48 1415.64,7552.64"/>
    </edge>
    <edge id=":1061962672_6" function="internal">
        <lane id=":1061962672_6_0" index="0" allow="pedestrian delivery bicycle" speed="5.06" length="4.98" shape="1412.41,7549.68 1412.67,7551.01 1413.30,7551.95 1414.29,7552.49 1415.64,7552.64"/>
    </edge>
    <edge id=":1061962672_7" function="internal">
        <lane id=":1061962672_7_0" index="0" disallow="tram rail_urban rail rail_electric rail_fast ship" speed="13.89" length="9.34" shape="1412.41,7549.68 1412.73,7559.01"/>
    </edge>
    <edge id=":1061962672_8" function="internal">
        <lane id=":1061962672_8_0" index="0" disallow="tram rail_urban rail rail_electric rail_fast ship" speed="3.65" length="2.34" shape="1412.41,7549.68 1411.68,7550.92 1410.90,7551.36"/>
    </edge>
    <edge id=":1061962672_11" function="internal">
        <lane id=":1061962672_11_0" index="0" disallow="tram rail_urban rail rail_electric rail_fast ship" speed="3.65" length="2.34" shape="1410.90,7551.36 1410.08,7551.00 1409.22,7549.85"/>
    </edge>
    <edge id=":2307242348_0" function="internal">
        <lane id=":2307242348_0_0" index="0" disallow="tram rail_urban rail rail_electric rail_fast ship" speed="3.65" length="4.67" shape="1042.34,7059.07 1041.13,7058.28 1040.72,7057.49 1041.11,7056.68 1042.30,7055.87"/>
    </edge>
    <edge id=":3196537748_0" function="internal">
        <lane id=":3196537748_0_0" index="0" disallow="tram rail_urban rail rail_electric rail_fast ship" speed="22.22" length="5.97" shape="1297.35,6793.11 1291.38,6793.20"/>
    </edge>
    <edge id=":3196537748_1" function="internal">
        <lane id=":3196537748_1_0" index="0" allow="pedestrian delivery bicycle" speed="6.83" length="5.17" shape="1297.35,6793.11 1294.53,6792.75 1292.54,6791.56"/>
    </edge>
    <edge id=":3196537748_2" function="internal">
        <lane id=":3196537748_2_0" index="0" disallow="tram rail_urban rail rail_electric rail_fast ship" speed="3.65" length="2.34" shape="1297.35,6793.11 1296.14,6792.33 1295.73,6791.54"/>
    </edge>
    <edge id=":3196537748_9" function="internal">
        <lane id=":3196537748_9_0" index="0" allow="pedestrian delivery bicycle" speed="6.83" length="5.17" shape="1292.54,6791.56 1291.37,6789.56 1291.02,6786.74"/>
    </edge>
    <edge id=":3196537748_10" function="internal">
        <lane id=":3196537748_10_0" index="0" disallow="tram rail_urban rail rail_electric rail_fast ship" speed="3.65" length="2.34" shape="1295.73,6791.54 1296.12,6790.73 1297.31,6789.92"/>
    </edge>
    <edge id=":3196537748_3" function="internal">
        <lane id=":3196537748_3_0" index="0" disallow="tram rail_urban rail rail_electric rail_fast ship" speed="5.00" length="5.04" shape="1294.22,6786.80 1294.39,6788.18 1294.96,6789.16 1295.93,6789.74 1297.31,6789.92"/>
    </edge>
    <edge id=":3196537748_4" function="internal">
        <lane id=":3196537748_4_0" index="0" disallow="tram rail_urban rail rail_electric rail_fast ship" speed="6.10" length="7.61" shape="1294.22,6786.80 1293.99,6789.58 1293.44,6791.58 1292.57,6792.78 1291.38,6793.20"/>
    </edge>
    <edge id=":3196537748_5" function="internal">
        <lane id=":3196537748_5_0" index="0" allow="pedestrian delivery bicycle" speed="3.65" length="4.67" shape="1294.22,6786.80 1293.40,6787.99 1292.59,6788.37 1291.80,6787.95 1291.02,6786.74"/>
    </edge>
    <edge id=":3196537748_6" function="internal">
        <lane id=":3196537748_6_0" index="0" allow="pedestrian delivery bicycle" speed="4.31" length="3.28" shape="1291.33,6790.00 1291.02,6786.74"/>
    </edge>
    <edge id=":3196537748_7" function="internal">
        <lane id=":3196537748_7_0" index="0" disallow="tram rail_urban rail rail_electric rail_fast ship" speed="22.22" length="5.98" shape="1291.33,6790.00 1297.31,6789.92"/>
    </edge>
    <edge id=":3196537748_8" function="internal">
        <lane id=":3196537748_8_0" index="0" disallow="tram rail_urban rail rail_electric rail_fast ship" speed="3.65" length="2.34" shape="1291.33,6790.00 1292.54,6790.78 1292.96,6791.57"/>
    </edge>
    <edge id=":3196537748_11" function="internal">
        <lane id=":3196537748_11_0" index="0" disallow="tram rail_urban rail rail_electric rail_fast ship" speed="3.65" length="2.34" shape="1292.96,6791.57 1292.57,6792.38 1291.38,6793.20"/>
    </edge>
    <edge id=":3196537751_0" function="internal">
        <lane id=":3196537751_0_0" index="0" allow="pedestrian delivery bicycle" speed="3.65" length="4.67" shape="1319.72,6504.36 1320.47,6503.12 1321.25,6502.69 1322.07,6503.06 1322.92,6504.22"/>
    </edge>
    <edge id=":3196537758_0" function="internal">
        <lane id=":3196537758_0_0" index="0" disallow="tram rail_urban rail rail_electric rail_fast ship" speed="13.89" length="8.86" shape="1392.30,6847.67 1392.09,6838.81"/>
    </edge>
    <edge id=":3196537758_1" function="internal">
        <lane id=":3196537758_1_0" index="0" allow="pedestrian delivery bicycle" speed="6.80" length="4.64" shape="1392.30,6847.67 1392.64,6845.20 1393.78,6843.38"/>
    </edge>
    <edge id=":3196537758_2" function="internal">
        <lane id=":3196537758_2_0" index="0" disallow="tram rail_urban rail rail_electric rail_fast ship" speed="3.65" length="2.34" shape="1392.30,6847.67 1393.07,6846.45 1393.86,6846.03"/>
    </edge>
    <edge id=":3196537758_9" function="internal">
        <lane id=":3196537758_9_0" index="0" allow="pedestrian delivery bicycle" speed="6.80" length="5.09" shape="1393.78,6843.38 1395.74,6842.22 1398.51,6841.71"/>
    </edge>
    <edge id=":3196537758_10" function="internal">
        <lane id=":3196537758_10_0" index="0" disallow="tram rail_urban rail rail_electric rail_fast ship" speed="3.65" length="2.34" shape="1393.86,6846.03 1394.67,6846.41 1395.50,6847.59"/>
    </edge>
    <edge id=":3196537758_3" function="internal">
        <lane id=":3196537758_3_0" index="0" disallow="tram rail_urban rail rail_electric rail_fast ship" speed="4.96" length="4.69" shape="1398.69,6844.91 1397.27,6845.14 1396.27,6845.67 1395.68,6846.48 1395.50,6847.59"/>
    </edge>
    <edge id=":3196537758_4" function="internal">
        <lane id=":3196537758_4_0" index="0" disallow="tram rail_urban rail rail_electric rail_fast ship" speed="6.84" length="10.32" shape="1398.69,6844.91 1395.86,6844.66 1393.81,6843.57 1392.56,6841.62 1392.09,6838.81"/>
    </edge>
    <edge id=":3196537758_5" function="internal">
        <lane id=":3196537758_5_0" index="0" allow="pedestrian delivery bicycle" speed="3.65" length="4.67" shape="1398.69,6844.91 1397.45,6844.18 1397.00,6843.40 1397.36,6842.58 1398.51,6841.71"/>
    </edge>
    <edge id=":3196537758_6" function="internal">
        <lane id=":3196537758_6_0" index="0" allow="pedestrian delivery bicycle" speed="5.01" length="5.04" shape="1395.29,6838.74 1395.52,6840.11 1396.13,6841.06 1397.13,6841.59 1398.51,6841.71"/>
    </edge>
    <edge id=":3196537758_7" function="internal">
        <lane id=":3196537758_7_0" index="0" disallow="tram rail_urban rail rail_electric rail_fast ship" speed="13.89" length="8.85" shape="1395.29,6838.74 1395.50,6847.59"/>
    </edge>
    <edge id=":3196537758_8" function="internal">
        <lane id=":3196537758_8_0" index="0" disallow="tram rail_urban rail rail_electric rail_fast ship" speed="3.65" length="2.34" shape="1395.29,6838.74 1394.52,6839.96 1393.72,6840.37"/>
    </edge>
    <edge id=":3196537758_11" function="internal">
        <lane id=":3196537758_11_0" index="0" disallow="tram rail_urban rail rail_electric rail_fast ship" speed="3.65" length="2.34" shape="1393.72,6840.37 1392.92,6839.99 1392.09,6838.81"/>
    </edge>
    <edge id=":3196543061_0" function="internal">
        <lane id=":3196543061_0_0" index="0" disallow="tram rail_urban rail rail_electric rail_fast ship" speed="13.89" length="9.40" shape="1393.26,6888.13 1393.04,6878.73"/>
    </edge>
    <edge id=":3196543061_1" function="internal">
        <lane id=":3196543061_1_0" index="0" allow="pedestrian delivery bicycle" speed="6.86" length="5.08" shape="1393.26,6888.13 1393.59,6885.36 1394.73,6883.37"/>
    </edge>
    <edge id=":3196543061_2" function="internal">
        <lane id=":3196543061_2_0" index="0" disallow="tram rail_urban rail rail_electric rail_fast ship" speed="3.65" length="2.34" shape="1393.26,6888.13 1394.03,6886.91 1394.82,6886.49"/>
    </edge>
    <edge id=":3196543061_9" function="internal">
        <lane id=":3196543061_9_0" index="0" allow="pedestrian delivery bicycle" speed="6.86" length="5.08" shape="1394.73,6883.37 1396.67,6882.14 1399.41,6881.68"/>
    </edge>
    <edge id=":3196543061_10" function="internal">
        <lane id=":3196543061_10_0" index="0" disallow="tram rail_urban rail rail_electric rail_fast ship" speed="3.65" length="2.34" shape="1394.82,6886.49 1395.63,6886.87 1396.46,6888.05"/>
    </edge>
    <edge id=":3196543061_3" function="internal">
        <lane id=":3196543061_3_0" index="0" disallow="tram rail_urban rail rail_electric rail_fast ship" speed="5.04" length="5.00" shape="1399.49,6884.88 1398.14,6885.11 1397.18,6885.71 1396.62,6886.69 1396.46,6888.05"/>
    </edge>
    <edge id=":3196543061_4" function="internal">
        <lane id=":3196543061_4_0" index="0" disallow="tram rail_urban rail rail_electric rail_fast ship" speed="6.86" length="10.16" shape="1399.49,6884.88 1396.72,6884.55 1394.73,6883.42 1393.50,6881.48 1393.04,6878.73"/>
    </edge>
    <edge id=":3196543061_5" function="internal">
        <lane id=":3196543061_5_0" index="0" allow="pedestrian delivery bicycle" speed="3.65" length="4.67" shape="1399.49,6884.88 1398.27,6884.11 1397.85,6883.32 1398.23,6882.51 1399.41,6881.68"/>
    </edge>
    <edge id=":3196543061_6" function="internal">
        <lane id=":3196543061_6_0" index="0" allow="pedestrian delivery bicycle" speed="5.04" length="5.00" shape="1396.24,6878.66 1396.46,6880.01 1397.07,6880.96 1398.05,6881.52 1399.41,6881.68"/>
    </edge>
    <edge id=":3196543061_7" function="internal">
        <lane id=":3196543061_7_0" index="0" disallow="tram rail_urban rail rail_electric rail_fast ship" speed="13.89" length="9.40" shape="1396.24,6878.66 1396.46,6888.05"/>
    </edge>
    <edge id=":3196543061_8" function="internal">
        <lane id=":3196543061_8_0" index="0" disallow="tram rail_urban rail rail_electric rail_fast ship" speed="3.65" length="2.34" shape="1396.24,6878.66 1395.47,6879.87 1394.68,6880.29"/>
    </edge>
    <edge id=":3196543061_11" function="internal">
        <lane id=":3196543061_11_0" index="0" disallow="tram rail_urban rail rail_electric rail_fast ship" speed="3.65" length="2.34" shape="1394.68,6880.29 1393.87,6879.91 1393.04,6878.73"/>
    </edge>
    <edge id=":3372443367_0" function="internal">
        <lane id=":3372443367_0_0" index="0" disallow="tram rail_urban rail rail_electric rail_fast ship" speed="6.69" length="11.77" shape="1561.48,7555.30 1561.12,7558.66 1559.76,7560.76 1557.40,7561.61 1554.04,7561.21"/>
    </edge>
    <edge id=":3372443367_1" function="internal">
        <lane id=":3372443367_1_0" index="0" disallow="tram rail_urban rail rail_electric rail_fast ship" speed="5.85" length="8.69" shape="1561.48,7555.30 1561.13,7557.21 1559.91,7558.32 1557.82,7558.62 1554.87,7558.12"/>
    </edge>
    <edge id=":3372447178_0" function="internal">
        <lane id=":3372447178_0_0" index="0" disallow="tram rail_urban rail rail_electric rail_fast ship" speed="7.86" length="11.39" shape="1623.26,6926.05 1620.26,6926.53 1617.94,6927.82 1616.29,6929.90 1615.31,6932.78"/>
    </edge>
    <edge id=":3372447178_1" function="internal">
        <lane id=":3372447178_1_0" index="0" disallow="tram rail_urban rail rail_electric rail_fast ship" speed="13.89" length="15.94" shape="1623.26,6926.05 1607.33,6926.43"/>
    </edge>
    <edge id=":3372447178_2" function="internal">
        <lane id=":3372447178_2_0" index="0" disallow="tram rail_urban rail rail_electric rail_fast ship" speed="7.67" length="6.06" shape="1623.26,6926.05 1619.03,6925.55 1617.51,6924.59"/>
    </edge>
    <edge id=":3372447178_3" function="internal">
        <lane id=":3372447178_3_0" index="0" disallow="tram rail_urban rail rail_electric rail_fast ship" speed="3.65" length="2.34" shape="1623.26,6926.05 1622.04,6925.28 1621.62,6924.49"/>
    </edge>
    <edge id=":3372447178_16" function="internal">
        <lane id=":3372447178_16_0" index="0" disallow="tram rail_urban rail rail_electric rail_fast ship" speed="7.67" length="9.01" shape="1617.51,6924.59 1616.27,6923.79 1614.98,6920.79 1615.17,6916.53"/>
    </edge>
    <edge id=":3372447178_17" function="internal">
        <lane id=":3372447178_17_0" index="0" disallow="tram rail_urban rail rail_electric rail_fast ship" speed="3.65" length="2.34" shape="1621.62,6924.49 1622.00,6923.68 1623.18,6922.85"/>
    </edge>
    <edge id=":3372447178_4" function="internal">
        <lane id=":3372447178_4_0" index="0" disallow="tram rail_urban rail rail_electric rail_fast ship" speed="6.10" length="9.06" shape="1618.31,6917.12 1618.20,6919.69 1618.97,6921.49 1620.63,6922.55 1623.18,6922.85"/>
    </edge>
    <edge id=":3372447178_5" function="internal">
        <lane id=":3372447178_5_0" index="0" disallow="tram rail_urban rail rail_electric rail_fast ship" speed="13.89" length="15.94" shape="1618.31,6917.12 1615.31,6932.78"/>
    </edge>
    <edge id=":3372447178_6" function="internal">
        <lane id=":3372447178_6_0" index="0" disallow="tram rail_urban rail rail_electric rail_fast ship" speed="9.13" length="15.77" shape="1618.31,6917.12 1616.98,6921.12 1614.71,6924.00 1611.49,6925.77 1607.33,6926.43"/>
    </edge>
    <edge id=":3372447178_7" function="internal">
        <lane id=":3372447178_7_0" index="0" disallow="tram rail_urban rail rail_electric rail_fast ship" speed="3.65" length="4.67" shape="1618.31,6917.12 1617.30,6918.15 1616.44,6918.40 1615.73,6917.86 1615.17,6916.53"/>
    </edge>
    <edge id=":3372447178_8" function="internal">
        <lane id=":3372447178_8_0" index="0" disallow="tram rail_urban rail rail_electric rail_fast ship" speed="7.82" length="11.36" shape="1607.25,6923.23 1610.25,6922.76 1612.57,6921.48 1614.21,6919.40 1615.17,6916.53"/>
    </edge>
    <edge id=":3372447178_9" function="internal">
        <lane id=":3372447178_9_0" index="0" disallow="tram rail_urban rail rail_electric rail_fast ship" speed="13.89" length="15.93" shape="1607.25,6923.23 1623.18,6922.85"/>
    </edge>
    <edge id=":3372447178_10" function="internal">
        <lane id=":3372447178_10_0" index="0" disallow="tram rail_urban rail rail_electric rail_fast ship" speed="7.67" length="6.03" shape="1607.25,6923.23 1611.49,6923.74 1612.98,6924.70"/>
    </edge>
    <edge id=":3372447178_11" function="internal">
        <lane id=":3372447178_11_0" index="0" disallow="tram rail_urban rail rail_electric rail_fast ship" speed="3.65" length="2.34" shape="1607.25,6923.23 1608.47,6924.00 1608.89,6924.79"/>
    </edge>
    <edge id=":3372447178_18" function="internal">
        <lane id=":3372447178_18_0" index="0" disallow="tram rail_urban rail rail_electric rail_fast ship" speed="7.67" length="9.04" shape="1612.98,6924.70 1614.25,6925.51 1615.52,6928.52 1615.31,6932.78"/>
    </edge>
    <edge id=":3372447178_19" function="internal">
        <lane id=":3372447178_19_0" index="0" disallow="tram rail_urban rail rail_electric rail_fast ship" speed="3.65" length="2.34" shape="1608.89,6924.79 1608.51,6925.60 1607.33,6926.43"/>
    </edge>
    <edge id=":3372447178_12" function="internal">
        <lane id=":3372447178_12_0" index="0" disallow="tram rail_urban rail rail_electric rail_fast ship" speed="6.09" length="9.06" shape="1612.17,6932.17 1612.30,6929.61 1611.53,6927.80 1609.87,6926.74 1607.33,6926.43"/>
    </edge>
    <edge id=":3372447178_13" function="internal">
        <lane id=":3372447178_13_0" index="0" disallow="tram rail_urban rail rail_electric rail_fast ship" speed="13.89" length="15.93" shape="1612.17,6932.17 1615.17,6916.53"/>
    </edge>
    <edge id=":3372447178_14" function="internal">
        <lane id=":3372447178_14_0" index="0" disallow="tram rail_urban rail rail_electric rail_fast ship" speed="9.16" length="15.78" shape="1612.17,6932.17 1613.52,6928.18 1615.80,6925.30 1619.02,6923.52 1623.18,6922.85"/>
    </edge>
    <edge id=":3372447178_15" function="internal">
        <lane id=":3372447178_15_0" index="0" disallow="tram rail_urban rail rail_electric rail_fast ship" speed="3.65" length="4.67" shape="1612.17,6932.17 1613.18,6931.15 1614.05,6930.91 1614.76,6931.45 1615.31,6932.78"/>
    </edge>
    <edge id=":3372448402_0" function="internal">
        <lane id=":3372448402_0_0" index="0" disallow="tram rail_urban rail rail_electric rail_fast ship" speed="13.89" length="14.91" shape="1588.59,7045.55 1573.69,7045.88"/>
    </edge>
    <edge id=":3372448402_1" function="internal">
        <lane id=":3372448402_1_0" index="0" disallow="tram rail_urban rail rail_electric rail_fast ship" speed="7.50" length="6.30" shape="1588.59,7045.55 1583.99,7045.02 1582.62,7044.08"/>
    </edge>
    <edge id=":3372448402_2" function="internal">
        <lane id=":3372448402_2_0" index="0" disallow="tram rail_urban rail rail_electric rail_fast ship" speed="3.65" length="2.34" shape="1588.59,7045.55 1587.38,7044.78 1586.96,7043.99"/>
    </edge>
    <edge id=":3372448402_9" function="internal">
        <lane id=":3372448402_9_0" index="0" disallow="tram rail_urban rail rail_electric rail_fast ship" speed="7.50" length="9.60" shape="1582.62,7044.08 1581.25,7043.15 1580.38,7039.96 1581.37,7035.43"/>
    </edge>
    <edge id=":3372448402_10" function="internal">
        <lane id=":3372448402_10_0" index="0" disallow="tram rail_urban rail rail_electric rail_fast ship" speed="3.65" length="2.34" shape="1586.96,7043.99 1587.34,7043.18 1588.52,7042.35"/>
    </edge>
    <edge id=":3372448402_3" function="internal">
        <lane id=":3372448402_3_0" index="0" disallow="tram rail_urban rail rail_electric rail_fast ship" speed="5.84" length="9.13" shape="1584.37,7036.54 1583.80,7039.14 1584.30,7040.98 1585.88,7042.05 1588.52,7042.35"/>
    </edge>
    <edge id=":3372448402_4" function="internal">
        <lane id=":3372448402_4_0" index="0" disallow="tram rail_urban rail rail_electric rail_fast ship" speed="9.66" length="15.12" shape="1584.37,7036.54 1582.43,7040.57 1580.00,7043.47 1577.09,7045.24 1573.69,7045.88"/>
    </edge>
    <edge id=":3372448402_5" function="internal">
        <lane id=":3372448402_5_0" index="0" disallow="tram rail_urban rail rail_electric rail_fast ship" speed="3.65" length="4.67" shape="1584.37,7036.54 1583.21,7037.39 1582.32,7037.49 1581.71,7036.83 1581.37,7035.43"/>
    </edge>
    <edge id=":3372448402_6" function="internal">
        <lane id=":3372448402_6_0" index="0" disallow="tram rail_urban rail rail_electric rail_fast ship" speed="8.41" length="11.28" shape="1573.63,7042.68 1576.02,7042.19 1578.11,7040.82 1579.89,7038.56 1581.37,7035.43"/>
    </edge>
    <edge id=":3372448402_7" function="internal">
        <lane id=":3372448402_7_0" index="0" disallow="tram rail_urban rail rail_electric rail_fast ship" speed="13.89" length="14.89" shape="1573.63,7042.68 1588.52,7042.35"/>
    </edge>
    <edge id=":3372448402_8" function="internal">
        <lane id=":3372448402_8_0" index="0" disallow="tram rail_urban rail rail_electric rail_fast ship" speed="3.65" length="2.34" shape="1573.63,7042.68 1574.85,7043.46 1575.26,7044.25"/>
    </edge>
    <edge id=":3372448402_11" function="internal">
        <lane id=":3372448402_11_0" index="0" disallow="tram rail_urban rail rail_electric rail_fast ship" speed="3.65" length="2.34" shape="1575.26,7044.25 1574.88,7045.06 1573.69,7045.88"/>
    </edge>
    <edge id=":3372448403_0" function="internal">
        <lane id=":3372448403_0_0" index="0" disallow="tram rail_urban rail rail_electric rail_fast ship" speed="6.51" length="9.04" shape="1546.60,7052.02 1546.19,7049.57 1545.10,7047.84 1543.33,7046.83 1540.87,7046.53"/>
    </edge>
    <edge id=":3372448403_1" function="internal">
        <lane id=":3372448403_1_0" index="0" disallow="tram rail_urban rail rail_electric rail_fast ship" speed="13.89" length="14.41" shape="1546.60,7052.02 1546.27,7037.61"/>
    </edge>
    <edge id=":3372448403_2" function="internal">
        <lane id=":3372448403_2_0" index="0" disallow="tram rail_urban rail rail_electric rail_fast ship" speed="8.00" length="5.93" shape="1546.60,7052.02 1547.06,7048.15 1548.07,7046.38"/>
    </edge>
    <edge id=":3372448403_3" function="internal">