<?xml version="1.0" encoding="UTF-8"?>

<!-- generated on 09/03/20 22:23:01 by Eclipse SUMO netedit Version 1.4.0
<configuration xmlns:xsi="http://www.w3.org/2001/XMLSchema-instance" xsi:noNamespaceSchemaLocation="http://sumo.dlr.de/xsd/netconvertConfiguration.xsd">

    <input>
        <sumo-net-file value="D:\Sumo\Dissertation\DC\E-Cargo%20Bike%20extention\Network\New\new.net.xml"/>
    </input>

    <output>
        <output-file value="D:\Sumo\Dissertation\DC\E-Cargo%20Bike%20extention\Network\New\new.net.xml"/>
    </output>

    <processing>
        <geometry.min-radius.fix.railways value="false"/>
        <geometry.max-grade.fix value="false"/>
        <offset.disable-normalization value="true"/>
        <lefthand value="false"/>
    </processing>

    <junctions>
        <no-turnarounds value="true"/>
        <junctions.corner-detail value="5"/>
        <junctions.limit-turn-speed value="5.5"/>
        <rectangular-lane-cut value="false"/>
    </junctions>

    <pedestrian>
        <walkingareas value="false"/>
    </pedestrian>

    <netedit>
        <additional-files value="D:\Sumo\Dissertation\DC\E-Cargo%20Bike%20extention\Network\New\CombinedStops.add.xml"/>
    </netedit>

    <report>
        <aggregate-warnings value="5"/>
    </report>

</configuration>
-->

<additional xmlns:xsi="http://www.w3.org/2001/XMLSchema-instance" xsi:noNamespaceSchemaLocation="http://sumo.dlr.de/xsd/additional_file.xsd">
    <busStop id="BusStop_0" lane="806271971_0" startPos="35.00" endPos="45.33"/>
    <busStop id="BusStop_1" lane="112319055#1_0" startPos="87.36" endPos="117.36" lines="Line West"/>
    <busStop id="BusStop_10" lane="806271971_0" startPos="1.02" endPos="13.02" lines="Line East"/>
    <busStop id="BusStop_11" lane="-507341801_0" startPos="52.82" endPos="62.82" lines="Line East"/>
    <busStop id="BusStop_12" lane="-6062805#2_0" startPos="29.15" endPos="39.15" lines="Line East"/>
    <busStop id="BusStop_13" lane="-6062805#1_0" startPos="150.35" endPos="160.35" lines="LIne East"/>
    <busStop id="BusStop_14" lane="-637504388#5_0" startPos="16.65" endPos="46.65" lines="Line East"/>
    <busStop id="BusStop_15" lane="421789039#0_0" startPos="12.23" endPos="22.23" lines="Line East"/>
    <busStop id="BusStop_16" lane="421790823_0" startPos="8.01" endPos="18.01" lines="Line East"/>
    <busStop id="BusStop_17" lane="6054382#3_0" startPos="130.22" endPos="140.22" lines="Line East"/>
    <busStop id="BusStop_2" lane="421800694#2_0" startPos="0.00" endPos="31.57" lines="Line West"/>
    <busStop id="BusStop_3" lane="-6054454#2_0" startPos="18.02" endPos="28.02" lines="Line West"/>
    <busStop id="BusStop_4" lane="-6061786#9_0" lines="Line West"/>
    <busStop id="BusStop_5" lane="-6061783#0_0" startPos="10.78" endPos="20.78" lines="Line West"/>
    <busStop id="BusStop_7" lane="-6057932#0_0" startPos="113.15" endPos="123.15" lines="Line West"/>
    <busStop id="BusStop_8" lane="6058243#5_0" startPos="33.84" endPos="43.84" lines="Line West"/>
    <busStop id="BusStop_9" lane="-806271971_0" startPos="11.26" endPos="21.26" lines="Line West"/>
    <containerStop id="Container_1" lane="6060452#11_0" name="Container_1"/>
    <containerStop id="Container_10" lane="421789044#1_0" startPos="20.71" endPos="51.71" name="Container_10"/>
    <containerStop id="Container_12" lane="-421789039#0_0" startPos="10.09" endPos="30.12" name="Container_12" friendlyPos="1"/>
    <containerStop id="Container_13" lane="-6055573#6_0" startPos="8.41" endPos="18.42" name="Container_13" friendlyPos="1"/>
    <containerStop id="Container_14" lane="-112319055#1_0" startPos="5.19" endPos="25.19" name="Container_14"/>
    <containerStop id="Container_15" lane="6061786#4_0" startPos="13.79" endPos="34.48" name="Container_15" friendlyPos="1"/>
    <containerStop id="Container_2" lane="6054454#2_0" startPos="80.80" endPos="103.20" name="containerStop_2" friendlyPos="1"/>
    <containerStop id="Container_21" lane="-421789044#2_0" startPos="81.42" endPos="91.42" name="Container_1"/>
    <containerStop id="Container_23" lane="-6056891#13_0" startPos="16.21" endPos="26.21" name="Container_3"/>
    <containerStop id="Container_24" lane="-6062421#1_0" startPos="60.70" endPos="70.70" name="Container_4"/>
    <containerStop id="Container_25" lane="-106880765#6_0" startPos="18.88" endPos="28.88" name="Container_5"/>
    <containerStop id="Container_26" lane="-590581704#2_0" startPos="28.35" endPos="38.35" name="Container_6"/>
    <containerStop id="Container_27" lane="-6058927#4_0" startPos="11.48" endPos="21.48" name="Container_7"/>
    <containerStop id="Container_28" lane="-6063101#1_0" startPos="97.18" endPos="107.18" name="Container_8"/>
    <containerStop id="Container_3" lane="-6057932#0_0" startPos="128.10" endPos="157.93" name="Container_3" friendlyPos="1"/>
    <containerStop id="Container_31" lane="130908064#7_0" startPos="90.25" endPos="119.25" name="Container_31"/>
    <containerStop id="Container_32" lane="130908064#6_0" startPos="22.98" endPos="52.98" name="Container_32"/>
    <containerStop id="Container_33" lane="-800638464#6_0" startPos="29.76" endPos="59.76" name="Container_33"/>
    <containerStop id="Container_34" lane="637453301#7_0" startPos="1.44" endPos="15.44" name="Container_34"/>
    <containerStop id="Container_35" lane="-6055235#2_0" startPos="10.25" endPos="30.25" name="Container_35"/>
    <containerStop id="Container_4" lane="-6061783#1_0" startPos="2.11" endPos="20.09" name="Container_4" friendlyPos="1"/>
    <containerStop id="Container_5" lane="-421800694#2_0" startPos="1.05" endPos="21.05" name="Container_5"/>
    <containerStop id="Container_6" lane="-507341801_0" startPos="20.82" endPos="46.28" name="Container_6" friendlyPos="1"/>
    <containerStop id="Container_7" lane="-6062805#2_0" startPos="5.79" endPos="25.00" name="Container_7" friendlyPos="1"/>
    <containerStop id="Container_8" lane="637504388#5_0" startPos="25.75" endPos="47.75" name="Container_8"/>
    <containerStop id="Container_9" lane="507036327#1_0" startPos="111.96" endPos="141.96" name="Container_9"/>
    <containerStop id="Depot" lane="806271971_0" startPos="13.52" endPos="34.00"/>
    <containerStop id="MicroDepot" lane="421790823_0" startPos="21.29" endPos="31.29" name="MicroDepot"/>
	<edgeData id="806271971" type="emissions" freq="3000" file="C.xml" excludeEmpty="true"/>

</additional>
