<?xml version="1.0" encoding="UTF-8"?>

<!-- generated on 07/30/20 16:02:51 by Eclipse SUMO duarouter Version 1.4.0
<configuration xmlns:xsi="http://www.w3.org/2001/XMLSchema-instance" xsi:noNamespaceSchemaLocation="http://sumo.dlr.de/xsd/duarouterConfiguration.xsd">

    <input>
        <net-file value="DC.net.xml"/>
        <route-files value="trips.trips.xml"/>
    </input>

    <output>
        <output-file value="routes.rou.xml"/>
        <alternatives-output value="routes.rou.alt.xml"/>
    </output>

    <time>
        <begin value="0"/>
        <end value="3600.0"/>
    </time>

    <report>
        <no-warnings value="true"/>
        <ignore-errors value="true"/>
        <no-step-log value="true"/>
    </report>

</configuration>
-->

<routes xmlns:xsi="http://www.w3.org/2001/XMLSchema-instance" xsi:noNamespaceSchemaLocation="http://sumo.dlr.de/xsd/routes_file.xsd">  
 	<vType id="motorcycle" vClass="motorcycle" length="5.0" minGap="2.5" />
	<flow id="Flow1" color="102,255,51"  begin="0" end= "2400" number= "25" type="motorcycle" departLane = "best"> 
	<route edges="806271971  -507342040#0 -6058243#6 -6058243#5 -6058243#4 -6058243#3 -6058243#2 6057932#0 -6057932#0 6058243#2 6058243#3 6058243#4 6058243#5 6058243#6 806271972 806271971" />
	<stop containerStop="Container_3" name="Container_3" friendlyPos="0" duration="20"/>
    <stop containerStop="Depot" name="Depot" friendlyPos="0" duration="15" />
    </flow>
	<flow id="Flow3" color="102,255,51"  begin="0" end= "2400" number= "25" type="motorcycle" departLane = "best"> 
	<route edges="806271971  -507342040#0 -507342039 -507341801 -112319056 -6062805#3 -6062805#2 -6062805#1 -637504388#5 637504388#5 6062805#1 6062805#2 -6062805#2 6062805#2 6062805#3 112319056 507341801 507342039 806271972 806271971"/>
	<stop containerStop="Container_8" name="Container_8" friendlyPos="0" duration="20"/>
	<stop containerStop="Container_7" name="Container_7" friendlyPos="0" duration="20"/>
	<stop containerStop="Depot" name="Depot" friendlyPos="0" duration="15"/>
	</flow> 	
	<flow id="Flow5" color="102,255,51"  begin="0" end= "2400" number= "25" type="motorcycle" departLane = "best">
	<route edges="806271971  -507342040#0 -507342039 -507341801 -112319056 -6062805#3 -6055573#0 -6052591 -421789039#1 -421789039#0 -507340350#3 -507340350#2 -507340350#1 -507340350#0 637504388#5 6062805#1 6062805#2 6062805#3 112319056 507341801 -507341801 507341801 507342039 806271972 806271971"/>
	<stop containerStop="Container_12" name="Container_12" friendlyPos="0" duration="20"/>
	<stop containerStop="Container_6" name="Container_6" friendlyPos="0" duration="20"/>	
	<stop containerStop="Depot" name="Depot" friendlyPos="0" duration="15"/>
	</flow>	
	<vType id="passenger" vClass="passenger" length="5.0" minGap="2.5" />
	<flow id="Flow2" color="102,255,51"  begin="0" end= "2400" number= "25" type="passenger" departLane = "best"> 
	<route edges="806271971 -806271971 806271970#0 -6054382#3 -6054382#2 -6054382#1 -6054382#0 -507033018 507036327#0 507036327#1 -6056686#11 -6056686#10 421789044#1 421789044#2 421789044#3 421790823 -421790823 507342041#0 507342041#1 507342041#2 507342041#3 507342041#4 806271971" />
	<stop containerStop="Container_9" name="Container_9" friendlyPos="0" duration="20"/>
	<stop containerStop="Container_10" name="Container_10" friendlyPos="0" duration="20"/>
	<stop containerStop="Container_11" name="Container_11" friendlyPos="0" duration="20"/>
    <stop containerStop="Depot" name="Depot" friendlyPos="0" duration="15" />
    </flow>
	<flow id="Flow4" color="102,255,51"  begin="0" end= "2400" number= "25" type="passenger" departLane = "best">
	<route edges="806271971 507342038#0 507342038#1 -6060452#10 -6060452#9 -6060452#8 6061783#0 6061783#1 -6061783#1 6061783#1 -6061786#7 -6061786#6 -6061786#5 -6061786#4 6061786#4 6061786#5 -6055573#9 -6055573#8 -6055573#7 -6055573#6 -6055573#5 -6055573#4 -6055573#3 6058243#4 6058243#5 6058243#6 806271972 806271971"/>
	<stop containerStop="Container_4" name="Container_4" friendlyPos="0" duration="20"/>
	<stop containerStop="Container_15" name="Container_15" friendlyPos="0" duration="20"/>
	<stop containerStop="Container_13" name="Container_13" friendlyPos="0" duration="20"/>
	<stop containerStop="Depot" name="Depot" friendlyPos="0" duration="15"/>
	</flow> 	
	<vType id="delivery" vClass="delivery" length="5.0" minGap="2.5" />
	<flow id="Flow6" color="102,255,51"  begin="0" end= "2400" number= "25" type="delivery" departLane = "best">
	<route edges="806271971 507342038#0 507342038#1 6060452#11 627757316 421800694#0 421800694#1 421800694#2 421800694#3 -6054454#3 -6054454#2 6054454#2 6054454#3 -421800694#3 -421800694#2 -421800694#1 -421800694#0 -112319055#1 -112319055#0 -806271971 806271971"/>
	<stop containerStop="Container_1" name="Container_1" friendlyPos="0" duration="20"/>
	<stop containerStop="Container_2" name="Container_2" friendlyPos="0" duration="20"/>	
	<stop containerStop="Container_5" name="Container_5" friendlyPos="0" duration="20"/>
	<stop containerStop="Container_14" name="Container_14" friendlyPos="0" duration="20"/>	
	<stop containerStop="Depot" name="Depot" friendlyPos="0" duration="15"/>
	</flow>	
	<vType id="bus" vClass="bus" length="7.0" minGap="2.5" />
	<flow id="Flow7" color="102,255,51"  begin="0" end= "2400" number= "25" type="bus" departLane = "best">
	<route edges="806271971 112319055#0 112319055#1 421800694#0 421800694#1 421800694#2 421800694#3 -6054454#3 -6054454#2 -6054454#1 -6054454#0 -6057280#3 -6061786#9 -6061786#8 -6061783#1 -6061783#0 -6060452#7 -6060452#6 -6060452#5 -6055573#6 -6054055#3 -6054055#2 -6057932#0 6058243#2 6058243#3 6058243#4 6058243#5 6058243#6 507342040#0  -806271971"/>
	<stop busStop="BusStop_0" duration="15"/>
	<stop busStop="BusStop_1" duration="20"/>
	<stop busStop="BusStop_2" duration="20"/>
	<stop busStop="BusStop_3" duration="20"/>
	<stop busStop="BusStop_4" duration="20"/>
	<stop busStop="BusStop_5" duration="20"/>	
	<stop busStop="BusStop_6" duration="20"/>
	<stop busStop="BusStop_7" duration="20"/>
	<stop busStop="BusStop_8" duration="20"/>	
	<stop busStop="BusStop_9" duration="10"/>
	</flow>
	<flow id="Flow8" color="102,255,51"  begin="0" end= "2400" number= "25" type="bus" departLane = "best">
	<route edges="806271971  -507342040#0 -507342039 -507341801 -112319056 -6062805#3 -6062805#2 -6062805#1 -637504388#5 507340350#0 507340350#1 507340350#2 507340350#3 421789039#0 421789039#1 421789039#2 421789039#3 421789039#4 421789039#5 421789039#6 421789039#7 421790823 507033020 -507033020 507033018 6054382#0 6054382#1 6054382#2 6054382#3 -806271970#0 806271971"/>
	<stop busStop="BusStop_10" duration="20"/>
	<stop busStop="BusStop_11" duration="20"/>
	<stop busStop="BusStop_12" duration="20"/>
	<stop busStop="BusStop_13" duration="20"/>
	<stop busStop="BusStop_14" duration="20"/>
	<stop busStop="BusStop_15" duration="20"/>	
	<stop busStop="BusStop_16" duration="20"/>
	<stop busStop="BusStop_17" duration="10"/> 	
	</flow> 
	<vehicle id="0" depart="0.00">
        <route edges="-421789044#1 6056686#10 6056686#11 6056686#12 6056686#13 6056686#14 6056686#15 126303357#5 799540093#0 799540093#1 799540093#2 799540093#3 -799540093#3"/>
    </vehicle>
    <vehicle id="1" depart="0.95">
        <route edges="-6054524#2 -6054524#1"/>
    </vehicle>
    <vehicle id="2" depart="1.90">
        <route edges="-6061783#2 -6061783#1 -6061783#0 6060452#8 -6061782#3 -6061782#2 6061782#2"/>
    </vehicle>
    <vehicle id="3" depart="2.85">
        <route edges="-6055023#0 -130908153#4 -130908153#3 -130908153#2 -126303358#6 -126303358#5 -126303358#4 -126303358#3 -126303358#2 -126303358#1 -126303358#0 -507340350#3 -507340350#2 -507340350#1 -507340350#0 637504388#5 130908064#1 130908064#2 130908064#3 130908064#4 130908064#5 130908064#6 130908064#7 130908064#8 -130908064#8"/>
    </vehicle>
    <vehicle id="4" depart="3.80">
        <route edges="6055576#2 -6058243#2 -6058243#1 -6058243#0 -130908064#4 -130908064#3 -130908064#2 -130908064#1 6062805#1"/>
    </vehicle>
    <vehicle id="5" depart="4.75">
        <route edges="6061783#6 -800638460#3 -6055573#11 -6055573#10 -6055573#9 -6055573#8 -6055573#7 -6055573#6 -6055573#5 -6055573#4 6055573#4"/>
    </vehicle>
    <vehicle id="6" depart="5.70">
        <route edges="-112343453#0 -6061677#1 -6054093#2 -6054093#1 -6054093#0 131052342#1 112320365 130908023#0 130908023#1 130908023#2 126303358#0 126303358#1 126303358#2 126303358#3 126303358#4 126303358#5 126303358#6 130908153#2 130908153#3 130908153#4 130908153#5 126303357#4 126303357#5 799540093#0 793432602#1"/>
    </vehicle>
    <vehicle id="7" depart="6.65">
        <route edges="-6061786#1 -130908064#7 -130908064#6 -130908064#5 -130908064#4 -130908064#3 -130908064#2 -130908064#1 -637504388#5 507340350#0 507340350#1 507340350#2 507340350#3 126303358#0 126303358#1 126303358#2 126303358#3 126303358#4 126303358#5 126303358#6 -126303358#6"/>
    </vehicle>
    <vehicle id="9" depart="8.55">
        <route edges="130908064#3 130908064#4 130908064#5 130908064#6 130908064#7 130908064#8 130908064#9 800638463 800638462 800638460#0 800638460#1 800638460#2 800638460#3 800638460#4 -57692667#1 -57692667#0 -6057281#6 -6057281#5 -6057281#4 -6057281#3 -6057281#2 -6057281#1 -6057281#0 -421800694#4 -6054454#3"/>
    </vehicle>
    <vehicle id="10" depart="9.50">
        <route edges="131463037 421800694#0 421800694#1 421800694#2 -6061786#13 -6061786#12 -6061786#11 -6061786#10 -6061786#9 -6061786#8 -6061786#7 -6061786#6 -6061786#5"/>
    </vehicle>
    <vehicle id="11" depart="10.45">
        <route edges="-130908153#1 130908153#1 130908153#2 130908153#3 130908153#4 130908153#5 126303357#4 126303357#5 799540093#0 799540093#1 799540093#2 799540093#3 799540093#4 799540093#5 799540093#6 799540093#7 -112319055#1 112319055#1"/>
    </vehicle>
    <vehicle id="12" depart="11.40">
        <route edges="-6060452#4 6060452#4 6060452#5 -6060452#5"/>
    </vehicle>
    <vehicle id="13" depart="12.35">
        <route edges="-6061786#8 6061786#8 6061786#9 6057280#3 6054454#0"/>
    </vehicle>
    <vehicle id="14" depart="13.30">
        <route edges="-130908064#7 130908064#7 130908064#8 130908064#9 800638463 800638462 800638460#0 800638460#1 800638460#2 800638460#3 800638460#4 -57692667#1 -57692667#0 -6057281#6 -6057281#5 -6057281#4 -6057281#3 -6057281#2 -6057281#1 -6057281#0 -421800694#4 -421800694#3 -421800694#2 6054053#0 6054053#1 6054053#2 6054053#3 6054053#4"/>
    </vehicle>
    <vehicle id="15" depart="14.25">
        <route edges="130908064#4 6058243#0 6058243#1 6058243#2 6058243#3 6058243#4 6058243#5 6058243#6 806271972 806271970#0 806271970#1 806271970#2 -799540093#5 -799540093#4 -799540093#3 -799540093#2 -799540093#1 -793432602#0 -126303352#1 -126303352#0"/>
    </vehicle>
    <vehicle id="16" depart="15.20">
        <route edges="6057281#6 57692667#0 57692667#1 -800638460#4 -800638460#3 -800638460#2 -800638460#1 -800638460#0 -800638462 -800638463 -130908064#9 -130908064#8 -130908064#7 -130908064#6 -130908064#5 -130908064#4 -130908064#3 -130908064#2 6063369#0 6063369#1 6063369#2"/>
    </vehicle>
    <vehicle id="17" depart="16.15">
        <route edges="6057280#6 -6062244#1 -6062244#0 6061783#6 -800638460#3 -800638460#2 -800638460#1 -800638460#0 -800638462 -800638463 -130908064#9 -130908064#8 -130908064#7 -130908064#6 -130908064#5 -130908064#4 -130908064#3 -130908064#2 -130908064#1 -637504388#5 -637504388#4 -637504388#3 -637504388#2 -637504388#1 -637504388#0 -112320365 684178509#0 684178509#1 -6057920"/>
    </vehicle>
    <vehicle id="18" depart="17.10">
        <route edges="-6057281#4 -6057281#3 -6057281#2 -6057281#1 -6057281#0 421800694#5"/>
    </vehicle>
    <vehicle id="19" depart="18.05">
        <route edges="-392388948#1 -392388948#0 392388948#0 392388948#1 392388948#2 392388948#3 800638463 800638462 800638460#0 800638460#1 800638460#2 800638460#3 800638460#4 -57692667#1 -57692667#0 -6057281#6 -6057281#5 -6057281#4 -6057281#3 -6057281#2 -6057281#1 -6057281#0 -421800694#4 -421800694#3 -421800694#2 -421800694#1 -421800694#0 -799540093#7 -799540093#6 806271970#3"/>
    </vehicle>
    <vehicle id="20" depart="19.00">
        <route edges="6057932#0 -6057932#0 6058243#2 6058243#3 6058243#4 6058243#5 6058243#6 806271972 -507342041#4 -507342041#3 -507342041#2 -507342041#1 -507342041#0 -421789039#7"/>
    </vehicle>
    <vehicle id="21" depart="19.95">
        <route edges="6056686#13 -6056686#13 -6056686#12 -6056686#11 -6056686#10 -6056686#9 -6056686#8 -6056686#7 -6056686#6 -421789039#2 -421789039#1 -421789039#0 -130908023#2 -130908023#1 -130908023#0 -112320365 -131052342#1 -131052342#0 -131052367 6060104"/>
    </vehicle>
    <vehicle id="22" depart="20.90">
        <route edges="421789039#1 6052591 6055573#0 6062805#3 112319056 507341801 507342039 -6058243#6 6061782#0 6061782#1 6061782#2 6061782#3 -6060452#8 6061783#0 -6061783#0"/>
    </vehicle>
    <vehicle id="23" depart="21.85">
        <route edges="-6056686#10 -6056686#9 -6056686#8 -6056686#7 -6056686#6 -6056686#5 -6056686#4 -6056686#3 -6056686#2 -6056686#1 130908064#1 130908064#2 130908064#3 130908064#4 130908064#5 130908064#6 130908064#7 130908064#8 130908064#9 800638463 800638462 800638460#0 -6057932#6"/>
    </vehicle>
    <vehicle id="24" depart="22.80">
        <route edges="-6057280#4 -6057280#3 -6057280#2 -6057280#1 -6057280#0 -507342038#1 -507342038#0 -507342040#0 -507342039 -507341801 -112319056 -6062805#3 -6055573#0 -6052591 -421789039#1 -421789039#0 -507340350#3 -507340350#2 -507340350#1"/>
    </vehicle>
    <vehicle id="25" depart="23.75">
        <route edges="-6057928#0 -6063369#0 130908064#2 130908064#3 130908064#4 130908064#5 130908064#6 130908064#7 130908064#8 130908064#9 800638463 800638462 800638460#0 800638460#1 800638460#2 800638460#3 -6061783#6 -6061783#5 -6061783#4 6061783#4"/>
    </vehicle>
    <vehicle id="26" depart="24.70">
        <route edges="6056686#10 6056686#11 6056686#12 6056686#13 6056686#14 6056686#15 126303357#5 799540093#0 799540093#1 799540093#2 -799540093#2"/>
    </vehicle>
    <vehicle id="27" depart="25.65">
        <route edges="130908023#1 130908023#2 126303358#0 126303358#1 126303358#2 126303358#3 126303358#4 126303358#5 126303358#6 130908153#2 130908153#3 130908153#4 130908153#5 126303357#4 126303357#5 799540093#0 799540093#1 799540093#2 799540093#3 799540093#4 799540093#5 -806271970#2"/>
    </vehicle>
    <vehicle id="28" depart="26.60">
        <route edges="130908298 130908153#0 130908153#1 130908153#2 130908153#3 130908153#4 130908153#5 126303357#4 126303357#5 799540093#0 799540093#1 799540093#2 799540093#3 799540093#4 799540093#5 799540093#6 799540093#7 421800694#0 421800694#1 421800694#2 -6061786#13 -6061786#12 -6061786#11 -6061786#10 -6061786#9 -6061786#8 6061783#2 6061783#3 6061783#4 6061783#5"/>
    </vehicle>
    <vehicle id="29" depart="27.55">
        <route edges="130908297 112320365 637504388#0 637504388#1 637504388#2 637504388#3 637504388#4 637504388#5 6062805#1 6062805#2 6062805#3 112319056 507341801 507342039 507342040#0 507342038#0 507342038#1 6057280#0 -6057280#0"/>
    </vehicle>
    <vehicle id="30" depart="28.50">
        <route edges="800638464#0 -800638464#0 -130908064#9 -130908064#8 -130908064#7 -130908064#6 -130908064#5 -130908064#4 -130908064#3 -130908064#2 -130908064#1 -637504388#5 507340350#0 507340350#1 507340350#2 507340350#3 126303358#0 126303358#1 126303358#2 126303358#3 126303358#4 126303358#5 126303358#6 126303358#7 126303358#8"/>
    </vehicle>
    <vehicle id="31" depart="29.45">
        <route edges="507033019 6056686#12 6056686#13 6056686#14 6056686#15 126303357#5 799540093#0 799540093#1 799540093#2 799540093#3 799540093#4 799540093#5 799540093#6 799540093#7 421800694#0 421800694#1 421800694#2 -6061786#13 -6061786#12 -6061786#11 -6061786#10 -6061786#9 -6061786#8 6061783#2 -6061783#2"/>
    </vehicle>
    <vehicle id="32" depart="30.40">
        <route edges="126303358#0 -126303358#0 -507340350#3 -507340350#2 -507340350#1 -507340350#0 637504388#5 6062805#1 6062805#2 6062805#3 112319056 507341801 507342039 507342040#0 507342038#0 -507342038#0"/>
    </vehicle>
    <vehicle id="33" depart="31.35">
        <route edges="57692667#1 -800638460#4 800638460#4 -57692667#1 -57692667#0 -6057281#6 -6057281#5"/>
    </vehicle>
    <vehicle id="34" depart="32.30">
        <route edges="421800694#4 -421800694#4 -421800694#3 -421800694#2 -421800694#1 -421800694#0 -627757316 -6060452#11 -6060452#10 -6060452#9 -6060452#8 -6060452#7 -6060452#6 -6060452#5 -6055573#6 -6054055#3 -6054055#2"/>
    </vehicle>
    <vehicle id="35" depart="33.25">
        <route edges="-130908064#3 -130908064#2 6063369#0 6063369#1 6063369#2 6063369#3 6063369#4 6063369#5 6063369#6 6063369#7 -6063369#7"/>
    </vehicle>
    <vehicle id="36" depart="34.20">
        <route edges="507340342 637504388#5 6062805#1 6062805#2 6055573#1 6055573#2 6058243#4"/>
    </vehicle>
    <vehicle id="37" depart="35.15">
        <route edges="-6054382#2 6054382#2 6054382#3 806271970#1 -421790824#3"/>
    </vehicle>
    <vehicle id="38" depart="36.10">
        <route edges="6056686#4 6055573#0 6055573#1 6055573#2 6055573#3 6055573#4 6055573#5 6055573#6 6055573#7 6055573#8"/>
    </vehicle>
    <vehicle id="39" depart="37.05">
        <route edges="-800638464#3 -800638464#2 -800638464#1 -800638464#0 -130908064#9 -130908064#8 -130908064#7 -130908064#6"/>
    </vehicle>
    <vehicle id="40" depart="38.00">
        <route edges="-468442114 -126303358#9 126303358#9 468442114 126303357#0 126303357#1 126303357#2 126303357#3 126303357#4 126303357#5 799540093#0 799540093#1 799540093#2 799540093#3"/>
    </vehicle>
    <vehicle id="41" depart="38.95">
        <route edges="-799540093#2 -799540093#1 -799540093#0 -126303357#5 -126303357#4 -130908153#5 -130908153#4 -130908153#3 -130908153#2 -126303358#6 -126303358#5 -126303358#4 -126303358#3 -126303358#2 -126303358#1 -126303358#0 -507340350#3 -507340350#2 -507340350#1 507340350#1"/>
    </vehicle>
    <vehicle id="42" depart="39.90">
        <route edges="112319055#1 421800694#0 421800694#1 6054053#0"/>
    </vehicle>
    <vehicle id="43" depart="40.85">
        <route edges="-6061786#14 -6061786#13 -6061786#12 -6061786#11 -6061786#10 -6061786#9 -6061786#8 -6061786#7 -6061786#6 -6061786#5 6057932#5"/>
    </vehicle>
    <vehicle id="44" depart="41.80">
        <route edges="-6056686#15 -6055023#0 -130908153#4 -130908153#3 -130908153#2 -126303358#6 -126303358#5 -126303358#4 -126303358#3 -126303358#2 -126303358#1 -126303358#0 -507340350#3 -507340350#2 -507340350#1 -507340350#0 637504388#5 130908064#1 130908064#2 130908064#3 130908064#4 6058243#0 6058243#1"/>
    </vehicle>
    <vehicle id="45" depart="42.75">
        <route edges="6063369#2 6063369#3 6063369#4 6063369#5 6063369#6 6063369#7 6063369#8 -799540093#2 -799540093#1 793432602#1 -793432602#1"/>
    </vehicle>
    <vehicle id="46" depart="43.70">
        <route edges="6054093#2 -6054093#2 -6054093#1 -6054093#0 131052342#1 112320365 130908023#0 130908023#1 130908023#2 421789039#0 421789039#1 421789039#2 6056686#6 6056686#7 6056686#8 6056686#9 6056686#10 6056686#11 6056686#12 -6056686#12"/>
    </vehicle>
    <vehicle id="47" depart="44.65">
        <route edges="6063369#0 6063369#1 6063369#2 6062805#3 112319056 6054524#2 6054524#3"/>
    </vehicle>
    <vehicle id="48" depart="45.60">
        <route edges="-800638463 800638463 800638462 800638460#0 800638460#1 800638460#2 800638460#3 800638460#4 -57692667#1 -57692667#0 -6057281#6 -6057281#5 -6057281#4 -6057281#3 -6057281#2 -6057281#1 -6057281#0 -421800694#4 -421800694#3 -421800694#2 -421800694#1 -421800694#0 -799540093#7 -799540093#6 -799540093#5 -799540093#4 -799540093#3 -799540093#2 -799540093#1 -793432602#0 -126303352#1 -126303352#0 507035611 421790824#0"/>
    </vehicle>
    <vehicle id="49" depart="46.55">
        <route edges="130908064#8 130908064#9 800638463 800638462 800638460#0 800638460#1 800638460#2 800638460#3 800638460#4 -57692667#1 -57692667#0 -6057281#6 -6057281#5 -6057281#4 -6057281#3 -6057281#2 6057281#2"/>
    </vehicle>
    <vehicle id="50" depart="47.50">
        <route edges="6056686#12 -6056686#12 -6056686#11 -6056686#10 -6056686#9 -6056686#8 -6056686#7 -6056686#6 -6056686#5 -6056686#4 -6056686#3 -6056686#2 -6056686#1 130908064#1 130908064#2 130908064#3 130908064#4 130908064#5 130908064#6 130908064#7"/>
    </vehicle>
    <vehicle id="51" depart="48.45">
        <route edges="800638464#1 -800638464#1 -800638464#0 -130908064#9 -130908064#8 -130908064#7 -130908064#6 -130908064#5 6058243#0 6058243#1 6058243#2 6058243#3 6055573#3 6055573#4"/>
    </vehicle>
    <vehicle id="52" depart="49.40">
        <route edges="-507340350#0 507340350#0 507340350#1 507340350#2 507340350#3 126303358#0 126303358#1 126303358#2 126303358#3 126303358#4 126303358#5 126303358#6 130908153#2 130908153#3 130908153#4 130908153#5 126303357#4 126303357#5 799540093#0"/>
    </vehicle>
    <vehicle id="53" depart="50.35">
        <route edges="6061786#5 6061786#6 6061786#7 6061786#8 6061786#9 6061786#10 6061786#11 6061786#12 6061786#13 -421800694#2 -421800694#1 -421800694#0 -799540093#7 -799540093#6 -799540093#5 -799540093#4 -799540093#3 -799540093#2 -799540093#1 -799540093#0 -126303357#5 -126303357#4 -130908153#5 -130908153#4 -130908153#3 -130908153#2 -126303358#6 421789044#0"/>
    </vehicle>
    <vehicle id="54" depart="51.30">
        <route edges="-6061783#6 6062244#0 6062244#1 -6057280#6 -6057280#5 -6057280#4 -6057280#3 -6057280#2 -6057280#1 -6057280#0 -507342038#1 -507342038#0 -806271971 806271970#0 806271970#1"/>
    </vehicle>
    <vehicle id="55" depart="52.25">
        <route edges="-6054055#2 -6057932#0 6058243#2 6058243#3 6058243#4 6058243#5 6058243#6 806271972 -507342041#4 -507342041#3 -6063369#5"/>
    </vehicle>
    <vehicle id="56" depart="53.20">
        <route edges="112320365 637504388#0 637504388#1 637504388#2 637504388#3 637504388#4 637504388#5 6062805#1 6062805#2 6062805#3 112319056 507341801 507342039 507342040#0 112319055#0 112319055#1 421800694#0 421800694#1 421800694#2 6061786#14 -6061786#14"/>
    </vehicle>
    <vehicle id="57" depart="54.15">
        <route edges="-130908153#6 -130908153#5 -130908153#4 -130908153#3 -130908153#2 -130908153#1 -130908153#0 -130908298 130908298"/>
    </vehicle>
    <vehicle id="58" depart="55.10">
        <route edges="392388948#2 392388948#3 800638463 800638462 800638460#0 -6057932#6 -6057932#5 -6057932#4 -6057932#3 6057932#3"/>
    </vehicle>
    <vehicle id="59" depart="56.05">
        <route edges="6063369#7 6063369#8 799540093#3 799540093#4 799540093#5 799540093#6 799540093#7 421800694#0 421800694#1 421800694#2 421800694#3 421800694#4 6057281#0 6057281#1 6057281#2 6057281#3 6057281#4 6057281#5 6057281#6 57692667#0 57692667#1 -800638460#4 -800638460#3 -800638460#2 -800638460#1 -800638460#0 -800638462 -800638463 -392388948#3 -392388948#2 -392388948#1 -392388948#0"/>
    </vehicle>
    <vehicle id="60" depart="57.00">
        <route edges="6056686#3 -6056686#3 -6056686#2 -6056686#1 130908064#1 130908064#2 130908064#3 130908064#4 130908064#5 130908064#6 130908064#7 130908064#8 130908064#9 800638463 800638462 800638460#0 800638460#1 800638460#2 800638460#3 800638460#4 -57692667#1 -57692667#0 -6057281#6 -6057281#5 -6057281#4"/>
    </vehicle>
    <vehicle id="61" depart="57.95">
        <route edges="507342039 -507342039 -507341801 -112319056 -6062805#3 -6055573#0 -6052591 -421789039#1 -421789039#0 -507340350#3 -507340350#2 -507340350#1"/>
    </vehicle>
    <vehicle id="62" depart="58.90">
        <route edges="-126303358#9 126303358#9 468442114 126303357#0 126303357#1 126303357#2 126303357#3 126303357#4 126303357#5 799540093#0 799540093#1 799540093#2 799540093#3 799540093#4 799540093#5 799540093#6 799540093#7 421800694#0 421800694#1 421800694#2 6061786#14 -6061786#14"/>
    </vehicle>
    <vehicle id="63" depart="59.85">
        <route edges="6056686#2 6056686#3 6056686#4 6055573#0 6062805#3 112319056 6054524#2 6054524#3 -6054524#3"/>
    </vehicle>
    <vehicle id="64" depart="60.80">
        <route edges="-421800694#0 -112319055#1 -112319055#0 -507342040#0 -6058243#6 -6058243#5 6058243#5"/>
    </vehicle>
    <vehicle id="65" depart="61.75">
        <route edges="130908153#3 -130908153#3 -130908153#2 -126303358#6 -126303358#5 -126303358#4 -126303358#3 -126303358#2 -126303358#1 -126303358#0 -507340350#3"/>
    </vehicle>
    <vehicle id="66" depart="62.70">
        <route edges="-6054382#1 6054382#1 -6063369#6 507342041#3 -507342041#3"/>
    </vehicle>
    <vehicle id="67" depart="63.65">
        <route edges="-800638463 -130908064#9 -130908064#8 -130908064#7 -130908064#6 -130908064#5 -130908064#4 -130908064#3 -130908064#2 -130908064#1 -637504388#5 507340350#0 507340350#1 507340350#2 507340350#3 421789039#0 421789039#1 421789039#2 6056686#6 6056686#7 6056686#8 6056686#9 6056686#10 -6056686#10"/>
    </vehicle>
    <vehicle id="68" depart="64.60">
        <route edges="-6056686#4 6056686#4 6056686#5 6056686#6 6056686#7 6056686#8 6056686#9 6056686#10 6056686#11 6056686#12 -6056686#12"/>
    </vehicle>
    <vehicle id="69" depart="65.55">
        <route edges="126303357#4 -6056686#15 -6056686#14 -6056686#13 -6056686#12 -6056686#11 -6056686#10 421789044#1"/>
    </vehicle>
    <vehicle id="70" depart="66.50">
        <route edges="-6057928#2 6057928#2 6058243#1 6057932#0 -6057932#0"/>
    </vehicle>
    <vehicle id="71" depart="67.45">
        <route edges="130908064#6 130908064#7 130908064#8 130908064#9 800638463 800638462 800638460#0 800638460#1 800638460#2 800638460#3 800638460#4 -57692667#1 -57692667#0 -6057281#6 -6057281#5 -6057281#4 -6057281#3 -6057281#2 -6057281#1 -6057281#0 -421800694#4 421800694#4"/>
    </vehicle>
    <vehicle id="72" depart="68.40">
        <route edges="-507342040#0 -507342039 -507341801 -112319056 -6062805#3 -6062805#2"/>
    </vehicle>
    <vehicle id="73" depart="69.35">
        <route edges="-507340350#0 637504388#5 130908064#1 6063369#0 -6063369#0"/>
    </vehicle>
    <vehicle id="74" depart="70.30">
        <route edges="-6060452#4 6060452#4 6060452#5 6060452#6 6060452#7 6060452#8 6060452#9 6060452#10 6060452#11 627757316 -799540093#7 -799540093#6 -799540093#5 -799540093#4 -799540093#3 -799540093#2 -799540093#1 793432602#1 -793432602#1"/>
    </vehicle>
    <vehicle id="75" depart="71.25">
        <route edges="-6054382#1 6054382#1 -6063369#6 -6063369#5 -6063369#4 -6063369#3 -6063369#2 6055576#0 -6055576#0"/>
    </vehicle>
    <vehicle id="76" depart="72.20">
        <route edges="800638460#0 -800638460#0 -800638462 -800638463 -130908064#9 -130908064#8 -130908064#7 -130908064#6 -130908064#5 -130908064#4 -130908064#3 -130908064#2 -130908064#1 -637504388#5 -637504388#4 -637504388#3 -637504388#2 -637504388#1 -637504388#0 130908023#0 -130908023#0"/>
    </vehicle>
    <vehicle id="77" depart="73.15">
        <route edges="-6055573#8 -6055573#7 6060452#5 6060452#6 -6054524#5 -6054524#4 -6054524#3 -6054524#2 507341801"/>
    </vehicle>
    <vehicle id="78" depart="74.10">
        <route edges="126303358#0 -126303358#0 -507340350#3 -507340350#2 -507340350#1 -507340350#0 637504388#5 130908064#1 130908064#2 130908064#3 130908064#4 130908064#5 130908064#6 6060452#1 6060452#2 6060452#3 6057932#2 6057932#3"/>
    </vehicle>
    <vehicle id="79" depart="75.05">
        <route edges="6060452#2 6060452#3 -6057932#1 -6057932#0 -6058243#1 -6057928#2 -6057928#1 -6057928#0"/>
    </vehicle>
    <vehicle id="80" depart="76.00">
        <route edges="6056686#10 -6056686#10 -6056686#9 -6056686#8 -6056686#7 -6056686#6 -6056686#5 6055573#0 6063369#3"/>
    </vehicle>
    <vehicle id="81" depart="76.95">
        <route edges="-806271970#0 806271970#0 -6054382#3 -6054382#2 -6054382#1 6054382#1"/>
    </vehicle>
    <vehicle id="82" depart="77.90">
        <route edges="507342038#1 6060452#11 627757316 -799540093#7 -799540093#6 -799540093#5 -799540093#4 -799540093#3 -799540093#2 -799540093#1 793432602#1 793432602#2"/>
    </vehicle>
    <vehicle id="83" depart="78.85">
        <route edges="-6057280#1 -6057280#0 6060452#11 627757316 421800694#0 421800694#1 421800694#2 421800694#3 421800694#4 6057281#0 6057281#1 6057281#2 6057281#3 6057281#4"/>
    </vehicle>
    <vehicle id="84" depart="79.80">
        <route edges="6056686#6 6056686#7 6056686#8 6056755 126303358#5 126303358#6 126303358#7 126303358#8 126303358#9 468442114 126303357#0"/>
    </vehicle>
    <vehicle id="85" depart="80.75">
        <route edges="800638462 800638460#0 800638460#1 800638460#2 800638460#3 800638460#4 -57692667#1 -57692667#0 -6057281#6 -6057281#5 -6057281#4 -6057281#3 -6057281#2 -6057281#1 -6057281#0 -421800694#4 -421800694#3 -421800694#2 -421800694#1 -421800694#0 -799540093#7 -799540093#6 -799540093#5 -799540093#4 -799540093#3 -6063369#8 -421790824#0 -507035611"/>
    </vehicle>
    <vehicle id="86" depart="81.70">
        <route edges="-800638464#2 -800638464#1 -800638464#0 800638463 800638462 800638460#0 800638460#1 800638460#2 800638460#3 800638460#4 -57692667#1 -57692667#0 -6057281#6 -6057281#5 -6057281#4 -6057281#3 -6057281#2 -6057281#1 -6057281#0 -421800694#4 -421800694#3 -421800694#2 -421800694#1 -421800694#0 -799540093#7 -799540093#6"/>
    </vehicle>
    <vehicle id="87" depart="82.65">
        <route edges="-421790824#1 6063369#8 799540093#3 799540093#4 799540093#5 806271970#3"/>
    </vehicle>
    <vehicle id="88" depart="83.60">
        <route edges="6054454#0 -6054454#0 6057280#4 6057280#5 6057280#6 -6062244#1 -6062244#0 6061783#6 -800638460#3 -800638460#2 -800638460#1 -800638460#0 -800638462 -800638463 -392388948#3"/>
    </vehicle>
    <vehicle id="89" depart="84.55">